Version 4
SHEET 1 2700 1296
WIRE 1200 -208 1136 -208
WIRE 1328 -208 1200 -208
WIRE 944 -112 768 -112
WIRE 1056 -112 1024 -112
WIRE 1136 -112 1136 -128
WIRE 1136 -112 1056 -112
WIRE 1232 -112 1136 -112
WIRE 768 -64 768 -112
WIRE 1328 -64 1328 -208
WIRE 944 -16 896 -16
WIRE 1056 -16 1024 -16
WIRE 1200 -16 1200 -128
WIRE 1200 -16 1056 -16
WIRE 1232 -16 1200 -16
WIRE 768 64 768 16
FLAG 768 64 0
FLAG 1328 16 0
FLAG 1232 -16 W
IOPIN 1232 -16 Out
FLAG 1232 -112 T
IOPIN 1232 -112 Out
DATAFLAG 1056 -112 ""
DATAFLAG 1056 -16 ""
SYMBOL potentiometer 768 -32 R0
WINDOW 3 20 66 Left 2
SYMATTR InstName U1
SYMATTR Value Rtot=10K wiper={wp}
SYMBOL Misc\\battery 1328 -80 R0
WINDOW 123 0 0 Left 2
WINDOW 39 24 124 Left 2
SYMATTR InstName V1
SYMATTR Value 1
SYMATTR SpiceLine Rser=10
SYMBOL res 912 -32 R90
WINDOW 0 0 56 VBottom 2
WINDOW 3 32 56 VTop 2
SYMATTR InstName R1
SYMATTR Value 1k
SYMBOL res 1040 -32 R90
WINDOW 0 0 56 VBottom 2
WINDOW 3 32 56 VTop 2
SYMATTR InstName R2
SYMATTR Value 100
SYMBOL res 1040 -128 R90
WINDOW 0 0 56 VBottom 2
WINDOW 3 32 56 VTop 2
SYMATTR InstName R3
SYMATTR Value 100
SYMBOL res 1120 -224 R0
SYMATTR InstName R4
SYMATTR Value {rt}
SYMBOL res 1184 -224 R0
SYMATTR InstName R5
SYMATTR Value {rw}
TEXT 880 -504 Left 2 !.opt plotwinsize=0
TEXT 880 -568 Left 2 !.param freq=1.001k\n.param period=1/freq  ncycles=4
TEXT 880 -472 Left 2 !.op
TEXT 880 -440 Left 2 !;ac oct 200 1 100Meg
TEXT 880 -408 Left 2 !;tran 0 {ncycles*period} 0 {pi/3.14*period/1e4}
TEXT 888 -632 Left 2 !.lib opamp.sub
TEXT 2624 824 Left 2 ;XXXX
TEXT -344 -832 Left 2 ;XXXX
TEXT 896 112 Left 2 !.step param wp 0 1 0.1
TEXT 896 168 Left 2 !.step param pu list 0 1\n.param rw = 10k + 1G*pu\n.param rt = 10k + 1G*(1-pu)
